<configuration>
    <input>
        <net-file value="Tongyeong01.net.xml"/>
        <route-files value="Tongyeong01.rou.xml"/>
       
    </input>
    <time>
        <begin value="0"/>
        <end value="1000"/>
    </time>
</configuration>

