<?xml version="1.0" encoding="UTF-8"?>

<!-- generated on Thu Apr 30 16:59:22 2015 by SUMO netconvert Version 0.22.0D
<?xml version="1.0" encoding="UTF-8"?>

<configuration xmlns:xsi="http://www.w3.org/2001/XMLSchema-instance" xsi:noNamespaceSchemaLocation="http://sumo.dlr.de/xsd/netconvertConfiguration.xsd">

    <input>
        <type-files value="osm-urban-de.typ.xml"/>
        <osm-files value="Tongyeong01.osm.xml"/>
    </input>

    <output>
        <output-file value="Tongyeong01.net.xml"/>
    </output>

    <projection>
        <proj.utm value="true"/>
    </projection>

    <tls_building>
        <tls.join value="true"/>
    </tls_building>

    <ramp_guessing>
        <ramps.guess value="true"/>
    </ramp_guessing>

    <report>
        <verbose value="true"/>
    </report>

</configuration>
-->

<net version="0.13" xmlns:xsi="http://www.w3.org/2001/XMLSchema-instance" xsi:noNamespaceSchemaLocation="http://sumo.dlr.de/xsd/net_file.xsd">

    <location netOffset="-442685.18,-3850017.56" convBoundary="0.00,0.00,6076.57,7963.94" origBoundary="128.373050,34.791020,128.439707,34.862682" projParameter="+proj=utm +zone=52 +ellps=WGS84 +datum=WGS84 +units=m +no_defs"/>

    <edge id=":2039554064_0" function="internal">
        <lane id=":2039554064_0_0" index="0" allow="pedestrian" speed="15.28" length="3.28" shape="3520.37,4628.12 3517.11,4628.57"/>
    </edge>
    <edge id=":2039554064_1" function="internal">
        <lane id=":2039554064_1_0" index="0" speed="22.22" length="4.82" shape="3520.37,4628.12 3518.88,4628.19 3518.06,4627.78 3517.89,4626.87 3518.39,4625.47"/>
    </edge>
    <edge id=":2628161106_0" function="internal">
        <lane id=":2628161106_0_0" index="0" speed="22.22" length="4.82" shape="3739.12,5107.84 3739.81,5109.16 3739.78,5110.08 3739.02,5110.60 3737.54,5110.74"/>
    </edge>
    <edge id=":2799973172_0" function="internal">
        <lane id=":2799973172_0_0" index="0" speed="27.78" length="16.13" shape="3315.04,4713.56 3314.50,4718.32 3314.12,4721.57 3313.74,4724.83 3313.18,4729.58"/>
        <lane id=":2799973172_0_1" index="1" speed="27.78" length="16.13" shape="3311.78,4713.18 3311.23,4717.94 3310.85,4721.19 3310.46,4724.44 3309.90,4729.20"/>
    </edge>
    <edge id=":2799973172_2" function="internal">
        <lane id=":2799973172_2_0" index="0" speed="27.78" length="8.95" shape="3311.78,4713.18 3310.64,4717.50 3308.38,4720.33 3307.59,4720.65"/>
    </edge>
    <edge id=":2799973172_3" function="internal">
        <lane id=":2799973172_3_0" index="0" speed="27.78" length="2.40" shape="3311.78,4713.18 3310.82,4714.31 3309.95,4714.62"/>
    </edge>
    <edge id=":2799973172_11" function="internal">
        <lane id=":2799973172_11_0" index="0" speed="27.78" length="7.24" shape="3307.59,4720.65 3305.02,4721.67 3300.55,4721.52"/>
    </edge>
    <edge id=":2799973172_12" function="internal">
        <lane id=":2799973172_12_0" index="0" speed="27.78" length="2.40" shape="3309.95,4714.62 3309.18,4714.12 3308.51,4712.80"/>
    </edge>
    <edge id=":2799973172_4" function="internal">
        <lane id=":2799973172_4_0" index="0" speed="27.78" length="5.07" shape="3301.71,4715.03 3303.11,4715.07 3304.17,4714.65 3304.87,4713.77 3305.23,4712.41"/>
    </edge>
    <edge id=":2799973172_5" function="internal">
        <lane id=":2799973172_5_0" index="0" speed="27.78" length="15.77" shape="3301.13,4718.27 3305.37,4719.62 3308.25,4721.88 3309.76,4725.08 3309.90,4729.20"/>
    </edge>
    <edge id=":2799973172_6" function="internal">
        <lane id=":2799973172_6_0" index="0" speed="27.78" length="4.82" shape="3301.13,4718.27 3302.20,4719.30 3302.47,4720.19 3301.91,4720.93 3300.55,4721.52"/>
    </edge>
    <edge id=":2799973172_7" function="internal">
        <lane id=":2799973172_7_0" index="0" speed="27.78" length="5.58" shape="3303.35,4728.42 3303.27,4727.08 3302.68,4726.02 3301.58,4725.25 3299.97,4724.77"/>
    </edge>
    <edge id=":2799973172_8" function="internal">
        <lane id=":2799973172_8_0" index="0" speed="27.78" length="16.13" shape="3303.35,4728.42 3303.91,4723.67 3304.29,4720.42 3304.68,4717.16 3305.23,4712.41"/>
        <lane id=":2799973172_8_1" index="1" speed="27.78" length="16.13" shape="3306.63,4728.81 3307.19,4724.06 3307.57,4720.80 3307.95,4717.55 3308.51,4712.80"/>
    </edge>
    <edge id=":2799973172_10" function="internal">
        <lane id=":2799973172_10_0" index="0" speed="27.78" length="2.41" shape="3306.63,4728.81 3307.59,4727.68 3308.46,4727.37"/>
    </edge>
    <edge id=":2799973172_13" function="internal">
        <lane id=":2799973172_13_0" index="0" speed="27.78" length="2.41" shape="3308.46,4727.37 3309.23,4727.87 3309.90,4729.20"/>
    </edge>
    <edge id=":414962612_0" function="internal">
        <lane id=":414962612_0_0" index="0" speed="27.78" length="4.82" shape="2895.04,4069.27 2895.89,4068.05 2896.73,4067.66 2897.54,4068.09 2898.34,4069.34"/>
    </edge>
    <edge id=":414962625_0" function="internal">
        <lane id=":414962625_0_0" index="0" speed="27.78" length="4.82" shape="3953.20,434.41 3953.95,433.13 3954.75,432.67 3955.60,433.03 3956.49,434.22"/>
    </edge>
    <edge id=":414962705_0" function="internal">
        <lane id=":414962705_0_0" index="0" speed="27.78" length="0.10" shape="3312.53,4897.52 3312.53,4897.52"/>
        <lane id=":414962705_0_1" index="1" speed="27.78" length="0.10" shape="3315.82,4897.25 3315.82,4897.25"/>
    </edge>
    <edge id=":414962705_2" function="internal">
        <lane id=":414962705_2_0" index="0" speed="27.78" length="2.41" shape="3315.82,4897.25 3316.55,4895.95 3317.34,4895.47"/>
    </edge>
    <edge id=":414962705_6" function="internal">
        <lane id=":414962705_6_0" index="0" speed="27.78" length="2.41" shape="3317.34,4895.47 3318.19,4895.82 3319.11,4896.99"/>
    </edge>
    <edge id=":414962705_3" function="internal">
        <lane id=":414962705_3_0" index="0" speed="27.78" length="0.11" shape="3322.40,4896.71 3322.41,4896.82"/>
        <lane id=":414962705_3_1" index="1" speed="27.78" length="0.11" shape="3319.12,4897.02 3319.11,4896.99"/>
    </edge>
    <edge id=":414962705_5" function="internal">
        <lane id=":414962705_5_0" index="0" speed="27.78" length="2.41" shape="3319.12,4897.02 3318.38,4898.31 3317.58,4898.78"/>
    </edge>
    <edge id=":414962705_7" function="internal">
        <lane id=":414962705_7_0" index="0" speed="27.78" length="2.41" shape="3317.58,4898.78 3316.73,4898.42 3315.82,4897.25"/>
    </edge>
    <edge id=":436821162_0" function="internal">
        <lane id=":436821162_0_0" index="0" speed="27.78" length="4.82" shape="5117.91,7631.73 5119.24,7632.39 5119.75,7633.16 5119.44,7634.03 5118.32,7635.00"/>
    </edge>
    <edge id=":436823250_0" function="internal">
        <lane id=":436823250_0_0" index="0" speed="25.00" length="3.96" shape="3787.97,4465.30 3784.15,4466.33"/>
    </edge>
    <edge id=":436823250_1" function="internal">
        <lane id=":436823250_1_0" index="0" speed="27.78" length="6.07" shape="3788.37,4462.02 3782.91,4464.66"/>
    </edge>
    <edge id=":436823250_2" function="internal">
        <lane id=":436823250_2_0" index="0" speed="27.78" length="2.41" shape="3788.37,4462.02 3787.25,4461.05 3786.94,4460.18"/>
    </edge>
    <edge id=":436823250_10" function="internal">
        <lane id=":436823250_10_0" index="0" speed="27.78" length="2.41" shape="3786.94,4460.18 3787.45,4459.41 3788.78,4458.75"/>
    </edge>
    <edge id=":436823250_3" function="internal">
        <lane id=":436823250_3_0" index="0" speed="27.78" length="9.88" shape="3778.86,4459.16 3781.85,4457.64 3783.89,4456.31 3785.99,4455.48 3789.18,4455.47"/>
        <lane id=":436823250_3_1" index="1" speed="27.78" length="9.88" shape="3780.88,4461.91 3788.78,4458.75"/>
    </edge>
    <edge id=":436823250_5" function="internal">
        <lane id=":436823250_5_0" index="0" speed="25.00" length="20.22" shape="3780.88,4461.91 3787.97,4459.45 3790.88,4459.37 3789.60,4461.66 3784.15,4466.33"/>
    </edge>
    <edge id=":436823250_6" function="internal">
        <lane id=":436823250_6_0" index="0" speed="27.78" length="2.49" shape="3780.88,4461.91 3782.42,4461.84 3783.27,4462.27"/>
    </edge>
    <edge id=":436823250_11" function="internal">
        <lane id=":436823250_11_0" index="0" speed="27.78" length="2.49" shape="3783.27,4462.27 3783.43,4463.21 3782.91,4464.66"/>
    </edge>
    <edge id=":436823250_7" function="internal">
        <lane id=":436823250_7_0" index="0" speed="25.00" length="17.02" shape="3782.19,4463.68 3777.59,4467.61 3776.52,4469.54 3778.97,4469.47 3784.93,4467.40"/>
    </edge>
    <edge id=":436823250_8" function="internal">
        <lane id=":436823250_8_0" index="0" speed="25.00" length="8.23" shape="3782.19,4463.68 3788.78,4458.75"/>
    </edge>
    <edge id=":436823250_9" function="internal">
        <lane id=":436823250_9_0" index="0" speed="22.22" length="4.82" shape="3782.19,4463.68 3783.67,4463.61 3784.49,4464.02 3784.65,4464.93 3784.15,4466.33"/>
    </edge>
    <edge id=":436825581_0" function="internal">
        <lane id=":436825581_0_0" index="0" speed="27.78" length="0.22" shape="3488.29,4597.58 3488.03,4597.69"/>
        <lane id=":436825581_0_1" index="1" speed="27.78" length="0.22" shape="3486.94,4594.57 3486.80,4594.63"/>
    </edge>
    <edge id=":436825581_2" function="internal">
        <lane id=":436825581_2_0" index="0" speed="27.78" length="2.41" shape="3486.94,4594.57 3485.47,4594.33 3484.75,4593.74"/>
    </edge>
    <edge id=":436825581_6" function="internal">
        <lane id=":436825581_6_0" index="0" speed="27.78" length="2.41" shape="3484.75,4593.74 3484.79,4592.82 3485.58,4591.56"/>
    </edge>
    <edge id=":436825581_3" function="internal">
        <lane id=":436825581_3_0" index="0" speed="27.78" length="0.11" shape="3484.24,4588.54 3484.35,4588.49"/>
        <lane id=":436825581_3_1" index="1" speed="27.78" length="0.11" shape="3485.58,4591.56 3485.58,4591.56"/>
    </edge>
    <edge id=":436825581_5" function="internal">
        <lane id=":436825581_5_0" index="0" speed="27.78" length="2.41" shape="3485.58,4591.56 3487.03,4591.87 3487.72,4592.48"/>
    </edge>
    <edge id=":436825581_7" function="internal">
        <lane id=":436825581_7_0" index="0" speed="27.78" length="2.41" shape="3487.72,4592.48 3487.65,4593.40 3486.80,4594.63"/>
    </edge>
    <edge id=":436825587_0" function="internal">
        <lane id=":436825587_0_0" index="0" speed="27.78" length="1.21" shape="3302.88,4733.18 3302.95,4731.77"/>
        <lane id=":436825587_0_1" index="1" speed="27.78" length="1.21" shape="3306.18,4733.16 3306.23,4732.15"/>
    </edge>
    <edge id=":436825587_2" function="internal">
        <lane id=":436825587_2_0" index="0" speed="27.78" length="2.41" shape="3306.18,4733.16 3306.99,4731.92 3307.82,4731.50"/>
    </edge>
    <edge id=":436825587_6" function="internal">
        <lane id=":436825587_6_0" index="0" speed="27.78" length="2.41" shape="3307.82,4731.50 3308.64,4731.91 3309.48,4733.14"/>
    </edge>
    <edge id=":436825587_3" function="internal">
        <lane id=":436825587_3_0" index="0" speed="27.78" length="0.40" shape="3312.79,4732.93 3312.78,4733.12"/>
        <lane id=":436825587_3_1" index="1" speed="27.78" length="0.40" shape="3309.51,4732.54 3309.48,4733.14"/>
    </edge>
    <edge id=":436825587_5" function="internal">
        <lane id=":436825587_5_0" index="0" speed="27.78" length="2.41" shape="3309.51,4732.54 3308.54,4733.67 3307.68,4733.98"/>
    </edge>
    <edge id=":436825587_7" function="internal">
        <lane id=":436825587_7_0" index="0" speed="27.78" length="2.41" shape="3307.68,4733.98 3306.91,4733.48 3306.23,4732.15"/>
    </edge>
    <edge id=":436826230_0" function="internal">
        <lane id=":436826230_0_0" index="0" speed="27.78" length="0.11" shape="2889.10,4681.59 2889.09,4681.71"/>
        <lane id=":436826230_0_1" index="1" speed="27.78" length="0.11" shape="2885.80,4681.52 2885.80,4681.52"/>
    </edge>
    <edge id=":436826230_2" function="internal">
        <lane id=":436826230_2_0" index="0" speed="27.78" length="2.41" shape="2885.80,4681.52 2884.89,4682.70 2884.04,4683.06"/>
    </edge>
    <edge id=":436826230_6" function="internal">
        <lane id=":436826230_6_0" index="0" speed="27.78" length="2.41" shape="2884.04,4683.06 2883.24,4682.59 2882.50,4681.30"/>
    </edge>
    <edge id=":436826230_3" function="internal">
        <lane id=":436826230_3_0" index="0" speed="27.78" length="0.22" shape="2879.19,4681.38 2879.20,4681.10"/>
        <lane id=":436826230_3_1" index="1" speed="27.78" length="0.22" shape="2882.49,4681.45 2882.50,4681.30"/>
    </edge>
    <edge id=":436826230_5" function="internal">
        <lane id=":436826230_5_0" index="0" speed="27.78" length="2.41" shape="2882.49,4681.45 2883.34,4680.23 2884.18,4679.83"/>
    </edge>
    <edge id=":436826230_7" function="internal">
        <lane id=":436826230_7_0" index="0" speed="27.78" length="2.41" shape="2884.18,4679.83 2885.00,4680.26 2885.80,4681.52"/>
    </edge>
    <edge id=":436826231_0" function="internal">
        <lane id=":436826231_0_0" index="0" speed="25.00" length="8.70" shape="2889.63,4711.82 2888.22,4711.85 2886.46,4712.44 2884.34,4713.60 2881.86,4715.32"/>
    </edge>
    <edge id=":436826231_1" function="internal">
        <lane id=":436826231_1_0" index="0" speed="25.00" length="12.66" shape="2889.63,4711.82 2885.77,4710.64 2883.06,4708.95 2881.51,4706.75 2881.11,4704.04"/>
    </edge>
    <edge id=":436826231_2" function="internal">
        <lane id=":436826231_2_0" index="0" speed="22.22" length="4.82" shape="2889.63,4711.82 2888.59,4710.76 2888.35,4709.87 2888.92,4709.14 2890.30,4708.59"/>
    </edge>
    <edge id=":436826231_3" function="internal">
        <lane id=":436826231_3_0" index="0" speed="25.00" length="5.41" shape="2887.70,4704.44 2887.78,4706.04 2888.24,4707.26 2889.08,4708.11 2890.30,4708.59"/>
    </edge>
    <edge id=":436826231_4" function="internal">
        <lane id=":436826231_4_0" index="0" speed="27.78" length="11.31" shape="2887.70,4704.44 2887.18,4707.67 2886.03,4710.55 2884.26,4713.10 2881.86,4715.32"/>
        <lane id=":436826231_4_1" index="1" speed="27.78" length="11.31" shape="2884.40,4704.24 2884.00,4706.74 2883.11,4708.98 2881.73,4710.96 2879.87,4712.68"/>
    </edge>
    <edge id=":436826231_6" function="internal">
        <lane id=":436826231_6_0" index="0" speed="27.78" length="2.41" shape="2884.40,4704.24 2883.50,4705.43 2882.65,4705.79"/>
    </edge>
    <edge id=":436826231_11" function="internal">
        <lane id=":436826231_11_0" index="0" speed="27.78" length="2.41" shape="2882.65,4705.79 2881.86,4705.33 2881.11,4704.04"/>
    </edge>
    <edge id=":436826231_7" function="internal">
        <lane id=":436826231_7_0" index="0" speed="27.78" length="5.62" shape="2875.89,4707.42 2876.68,4706.69 2877.27,4705.85 2877.64,4704.90 2877.82,4703.84"/>
        <lane id=":436826231_7_1" index="1" speed="27.78" length="5.62" shape="2877.88,4710.05 2879.21,4708.83 2880.19,4707.42 2880.82,4705.82 2881.11,4704.04"/>
    </edge>
    <edge id=":436826231_9" function="internal">
        <lane id=":436826231_9_0" index="0" speed="25.00" length="5.98" shape="2877.88,4710.05 2880.23,4708.77 2883.09,4708.10 2883.46,4708.09"/>
    </edge>
    <edge id=":436826231_10" function="internal">
        <lane id=":436826231_10_0" index="0" speed="27.78" length="2.41" shape="2877.88,4710.05 2879.37,4709.96 2880.19,4710.37"/>
    </edge>
    <edge id=":436826231_12" function="internal">
        <lane id=":436826231_12_0" index="0" speed="25.00" length="6.88" shape="2883.46,4708.09 2886.44,4708.04 2890.30,4708.59"/>
    </edge>
    <edge id=":436826231_13" function="internal">
        <lane id=":436826231_13_0" index="0" speed="27.78" length="2.41" shape="2880.19,4710.37 2880.36,4711.28 2879.87,4712.68"/>
    </edge>
    <edge id=":436826412_0" function="internal">
        <lane id=":436826412_0_0" index="0" speed="27.78" length="7.30" shape="2657.60,5028.90 2652.28,5024.46"/>
        <lane id=":436826412_0_1" index="1" speed="27.78" length="7.30" shape="2656.46,5025.80 2649.33,5022.99"/>
    </edge>
    <edge id=":436826412_2" function="internal">
        <lane id=":436826412_2_0" index="0" speed="25.00" length="14.19" shape="2656.46,5025.80 2650.48,5027.17 2647.12,5025.89 2646.37,5021.97 2646.49,5021.53"/>
    </edge>
    <edge id=":436826412_3" function="internal">
        <lane id=":436826412_3_0" index="0" speed="27.78" length="2.41" shape="2656.46,5025.80 2655.02,5025.46 2654.34,5024.83"/>
    </edge>
    <edge id=":436826412_11" function="internal">
        <lane id=":436826412_11_0" index="0" speed="25.00" length="6.36" shape="2646.49,5021.53 2648.23,5015.41"/>
    </edge>
    <edge id=":436826412_12" function="internal">
        <lane id=":436826412_12_0" index="0" speed="27.78" length="2.41" shape="2654.34,5024.83 2654.44,5023.91 2655.32,5022.71"/>
    </edge>
    <edge id=":436826412_4" function="internal">
        <lane id=":436826412_4_0" index="0" speed="25.00" length="6.44" shape="2651.29,5016.64 2650.76,5018.60 2651.06,5019.75 2652.20,5020.09 2654.18,5019.61"/>
    </edge>
    <edge id=":436826412_5" function="internal">
        <lane id=":436826412_5_0" index="0" speed="25.00" length="6.64" shape="2651.29,5016.64 2649.33,5022.99"/>
    </edge>
    <edge id=":436826412_6" function="internal">
        <lane id=":436826412_6_0" index="0" speed="22.22" length="4.82" shape="2651.29,5016.64 2650.07,5017.48 2649.15,5017.55 2648.53,5016.86 2648.23,5015.41"/>
    </edge>
    <edge id=":436826412_7" function="internal">
        <lane id=":436826412_7_0" index="0" speed="25.00" length="6.67" shape="2643.42,5020.03 2648.23,5015.41"/>
    </edge>
    <edge id=":436826412_8" function="internal">
        <lane id=":436826412_8_0" index="0" speed="27.78" length="10.38" shape="2643.42,5020.03 2645.40,5018.20 2647.81,5018.71 2650.70,5019.78 2654.18,5019.61"/>
        <lane id=":436826412_8_1" index="1" speed="27.78" length="10.38" shape="2646.38,5021.51 2655.32,5022.71"/>
    </edge>
    <edge id=":436826412_10" function="internal">
        <lane id=":436826412_10_0" index="0" speed="27.78" length="2.41" shape="2646.38,5021.51 2647.67,5020.77 2648.59,5020.77"/>
    </edge>
    <edge id=":436826412_13" function="internal">
        <lane id=":436826412_13_0" index="0" speed="27.78" length="2.41" shape="2648.59,5020.77 2649.15,5021.51 2649.33,5022.99"/>
    </edge>
    <edge id=":437041359_0" function="internal">
        <lane id=":437041359_0_0" index="0" speed="27.78" length="4.82" shape="3035.09,4507.02 3035.90,4505.77 3036.73,4505.36 3037.55,4505.76 3038.39,4507.00"/>
    </edge>
    <edge id=":437041647_0" function="internal">
        <lane id=":437041647_0_0" index="0" speed="25.00" length="20.14" shape="3333.33,5060.34 3332.77,5065.22 3330.19,5067.92 3325.57,5068.46 3318.93,5066.82"/>
    </edge>
    <edge id=":437041647_1" function="internal">
        <lane id=":437041647_1_0" index="0" speed="27.78" length="4.82" shape="3330.04,5060.59 3329.32,5061.89 3328.52,5062.36 3327.67,5062.01 3326.75,5060.84"/>
    </edge>
    <edge id=":437041647_2" function="internal">
        <lane id=":437041647_2_0" index="0" speed="25.00" length="7.45" shape="3320.03,5063.72 3321.65,5064.05 3322.76,5063.72 3323.36,5062.74 3323.46,5061.09"/>
        <lane id=":437041647_2_1" index="1" speed="25.00" length="7.45" shape="3320.03,5063.72 3323.13,5064.48 3325.28,5064.26 3326.49,5063.05 3326.75,5060.84"/>
    </edge>
    <edge id=":437041647_4" function="internal">
        <lane id=":437041647_4_0" index="0" speed="22.22" length="4.81" shape="3320.03,5063.72 3320.92,5064.91 3321.03,5065.82 3320.37,5066.46 3318.93,5066.82"/>
    </edge>

    <edge id="-193436729" from="2039554064" to="436823250" priority="6" type="highway.tertiary" shape="3518.22,4627.65 3576.34,4584.34 3586.13,4581.36 3614.12,4585.59 3623.42,4583.09 3676.17,4543.72 3738.22,4499.90 3789.04,4460.44">
        <lane id="-193436729_0" index="0" speed="22.22" length="317.91" shape="3518.39,4625.47 3575.58,4582.85 3586.01,4579.67 3614.03,4583.91 3622.69,4581.58 3675.19,4542.40 3737.27,4498.55 3782.19,4463.68"/>
    </edge>
    <edge id="-199386695" from="436826230" to="414962612" priority="7" type="highway.secondary">
        <lane id="-199386695_0" index="0" speed="27.78" length="612.09" shape="2879.20,4681.10 2891.74,4069.21"/>
        <lane id="-199386695_1" index="1" speed="27.78" length="612.09" shape="2882.50,4681.30 2895.04,4069.27"/>
    </edge>
    <edge id="-199386764" from="437041647" to="414962705" priority="7" type="highway.secondary" shape="3329.00,5068.65 3325.04,5016.55 3321.91,4951.14 3317.47,4897.12">
        <lane id="-199386764_0" index="0" speed="27.78" length="163.97" shape="3323.46,5061.09 3320.10,5016.92 3316.97,4951.37 3312.53,4897.52"/>
        <lane id="-199386764_1" index="1" speed="27.78" length="163.97" shape="3326.75,5060.84 3323.39,5016.67 3320.26,4951.22 3315.82,4897.25"/>
    </edge>
    <edge id="-257216909" from="2628161106" to="436826412" priority="6" type="highway.tertiary" shape="3738.33,5109.29 3618.10,5043.69 3546.06,5004.40 3531.97,4990.24 3463.69,4925.78 3453.81,4914.52 3440.78,4900.13 3431.71,4891.98 3421.05,4882.28 3412.39,4876.86 3406.09,4873.78 3377.78,4865.35 3360.89,4863.10 3293.73,4855.69 3267.45,4855.84 3250.58,4858.67 3237.26,4861.10 3220.37,4860.41 3181.45,4849.31 3151.97,4841.28 3138.99,4834.72 3127.96,4828.53 3120.85,4821.54 3071.42,4759.71 3007.93,4706.95 2966.92,4674.77 2944.07,4659.66 2921.25,4651.59 2904.75,4648.56 2868.28,4652.69 2826.77,4669.73 2797.09,4693.75 2751.57,4762.78 2644.81,5028.34">
        <lane id="-257216909_0" index="0" speed="22.22" length="1462.10" shape="3737.54,5110.74 3617.31,5045.14 3545.06,5005.74 3530.80,4991.40 3462.56,4926.98 3452.57,4915.61 3439.56,4901.24 3430.61,4893.21 3420.05,4883.60 3411.52,4878.25 3405.37,4875.26 3377.31,4866.93 3360.68,4864.73 3293.55,4857.33 3267.46,4857.49 3250.86,4860.29 3237.37,4862.75 3220.11,4862.05 3181.00,4850.89 3151.38,4842.83 3138.24,4836.19 3126.96,4829.86 3119.69,4822.72 3070.24,4760.87 3006.87,4708.22 2965.90,4676.06 2943.33,4661.15 2920.70,4653.15 2904.69,4650.23 2868.69,4654.31 2827.62,4671.17 2798.32,4694.87 2753.04,4763.55 2651.29,5016.64"/>
    </edge>
    <edge id="-257217031" from="437041647" to="436826231" priority="6" type="highway.tertiary" shape="3329.00,5068.65 3274.52,5049.31 3216.47,5038.13 3167.30,5016.98 3134.77,4990.80 3084.17,4893.44 2995.14,4768.96 2930.18,4718.57 2882.48,4708.65">
        <lane id="-257217031_0" index="0" speed="22.22" length="587.93" shape="3318.93,5066.82 3273.97,5050.86 3215.99,5039.71 3166.44,5018.41 3133.46,4991.87 3082.70,4894.20 2993.93,4770.12 2929.47,4720.10 2889.63,4711.82"/>
    </edge>
    <edge id="-37399427#0" from="436823250" to="436825581" priority="7" type="highway.secondary" shape="3789.04,4460.44 3681.39,4503.21 3517.24,4580.69 3486.23,4593.08">
        <lane id="-37399427#0_0" index="0" speed="27.78" length="323.74" shape="3784.93,4467.40 3683.22,4507.81 3519.36,4585.17 3488.29,4597.58"/>
        <lane id="-37399427#0_1" index="1" speed="27.78" length="323.74" shape="3782.91,4464.66 3682.00,4504.75 3517.95,4582.19 3486.94,4594.57"/>
    </edge>
    <edge id="-37399427#1" from="414962625" to="436823250" priority="7" type="highway.secondary" shape="3954.85,434.31 3956.33,460.07 3965.80,471.50 3974.39,477.00 4027.43,474.47 4073.14,468.66 4101.44,458.52 4156.21,438.24 4220.07,405.71 4280.24,370.98 4329.52,348.52 4373.30,326.08 4400.63,307.07 4431.61,284.72 4452.52,261.31 4466.10,236.83 4491.52,203.42 4515.16,176.66 4531.58,168.81 4546.19,164.29 4582.78,162.97 4623.93,160.51 4639.46,157.10 4663.22,151.42 4696.97,133.48 4749.86,104.34 4784.94,91.12 4832.90,72.53 4888.47,43.07 4932.30,10.15 4961.51,0.00 4977.08,2.13 4997.29,14.18 5008.41,34.47 5014.22,85.97 5032.27,125.99 5054.74,164.71 5117.55,274.23 5135.16,311.92 5142.54,335.94 5146.30,354.78 5145.53,380.29 5139.07,410.73 5131.63,434.20 5124.92,454.71 5104.87,493.49 5084.75,526.40 5081.54,543.03 5081.68,567.42 5083.54,572.96 5091.86,587.33 5103.81,598.35 5127.73,609.47 5154.36,609.95 5189.11,607.54 5214.73,609.61 5231.54,619.09 5244.20,646.94 5240.05,666.73 5185.18,729.30 5175.49,747.58 5169.17,770.36 5176.92,789.14 5197.70,818.15 5244.09,957.38 5259.04,993.72 5272.85,1022.99 5279.89,1064.54 5282.86,1127.06 5272.34,1177.89 5262.64,1219.95 5264.04,1246.08 5276.13,1296.57 5284.42,1305.40 5299.46,1321.79 5329.76,1349.49 5373.91,1400.09 5376.68,1425.40 5375.85,1443.05 5363.20,1483.19 5323.74,1530.89 5302.28,1567.37 5297.87,1586.98 5295.05,1626.27 5295.72,1646.13 5304.22,1664.21 5333.24,1708.68 5388.80,1801.24 5408.02,1854.76 5421.61,1880.73 5453.33,1926.87 5479.49,1981.18 5497.97,2019.66 5508.90,2064.37 5519.03,2121.32 5517.44,2152.34 5512.19,2187.15 5500.80,2253.01 5470.03,2334.07 5464.80,2362.07 5465.52,2387.46 5474.50,2458.37 5488.08,2514.35 5510.98,2560.70 5544.05,2641.89 5575.21,2727.80 5583.25,2741.85 5597.26,2756.44 5637.83,2785.26 5658.62,2800.20 5678.56,2808.88 5698.32,2814.59 5734.10,2814.39 5757.11,2817.36 5777.30,2826.79 5804.64,2855.13 5837.10,2910.32 5851.27,2927.82 5868.33,2943.75 5906.36,2967.36 5927.09,2978.97 5943.48,2996.46 5951.77,3010.34 5955.90,3035.16 5951.91,3062.39 5942.14,3103.10 5930.69,3124.36 5911.59,3143.61 5887.66,3155.36 5857.59,3162.12 5840.65,3169.41 5828.34,3180.25 5819.12,3196.28 5816.44,3214.41 5822.55,3232.70 5862.82,3294.80 5875.73,3308.81 5890.19,3317.39 5913.56,3327.91 5970.62,3354.27 6004.10,3369.85 6026.02,3392.03 6048.68,3414.97 6073.45,3446.12 6076.57,3455.22 6065.26,3502.50 6049.35,3569.65 6042.80,3582.53 6021.41,3589.91 5985.66,3590.11 5968.80,3598.50 5956.04,3607.44 5944.20,3616.38 5851.39,3691.20 5827.06,3713.40 5811.55,3719.84 5800.29,3720.32 5695.13,3720.91 5626.56,3723.52 5621.08,3725.77 5601.01,3734.75 5568.16,3747.14 5542.64,3761.70 5531.71,3769.52 5525.32,3772.89 5520.78,3777.35 5505.30,3789.63 5489.84,3805.25 5466.27,3840.87 5451.73,3857.58 5437.20,3875.41 5433.59,3884.30 5429.95,3886.54 5427.22,3889.88 5424.49,3892.12 5424.60,3912.08 5424.72,3933.15 5428.57,3966.40 5435.13,3994.08 5438.97,4026.22 5440.00,4047.29 5437.33,4060.61 5430.96,4066.19 5410.09,4094.03 5404.63,4099.61 5373.70,4128.62 5359.99,4129.80 5337.13,4128.82 5303.24,4119.04 5299.57,4117.95 5294.99,4116.86 5284.93,4115.81 5262.09,4119.27 5193.60,4136.29 5129.68,4152.18 5052.94,4167.04 5006.33,4171.74 4983.47,4171.87 4958.80,4175.34 4920.45,4184.43 4838.31,4213.73 4799.98,4226.15 4722.35,4243.23 4620.97,4264.88 4548.82,4281.93 4475.76,4297.88 4423.69,4307.05 4411.75,4307.43 4339.57,4309.75 4280.24,4327.84 4216.39,4355.93 4140.13,4387.96 4133.38,4390.79 4058.56,4420.06 3958.23,4463.89 3949.12,4469.49 3911.66,4474.14 3840.29,4466.80 3789.04,4460.44">